data_test

_audit_creation_method generated by ABACUS

_cell_length_a 2.80729
_cell_length_b 2.80729
_cell_length_c 50.4271
_cell_angle_alpha 90
_cell_angle_beta 90
_cell_angle_gamma 60

_symmetry_space_group_name_H-M 
_symmetry_Int_Tables_number 

loop_
_atom_site_label
_atom_site_fract_x
_atom_site_fract_y
_atom_site_fract_z
Al 0 0 0.000156987
Al 0.333333 0.333333 0.0453662
Al 0.666667 0.666667 0.0909134
Al 0 0 0.136159
Al 0.333333 0.333333 0.181783
Al 0 0 0.227247
Al 0.633333 0.633333 0.27285
Al 0.966667 0.966667 0.318386
Al 0.3 0.3 0.363673
Al 0.633333 0.633333 0.408958
Al 0.966667 0.966667 0.454545
Al 0.633333 0.633333 0.500133
Al 0.3 0.3 0.545418
Al 0.966667 0.966667 0.590705
Al 0.633333 0.633333 0.636241
Al 0 0 0.681844
Al 0.333333 0.333333 0.727308
Al 0 0 0.772932
Al 0.666667 0.666667 0.818177
Al 0.333333 0.333333 0.863725
Al 0 0 0.908934
Al 0.666667 0.666667 0.954545
