data_test

_audit_creation_method generated by ABACUS

_cell_length_a 2.8058
_cell_length_b 2.8058
_cell_length_c 45.8185
_cell_angle_alpha 90
_cell_angle_beta 90
_cell_angle_gamma 60

_symmetry_space_group_name_H-M 
_symmetry_Int_Tables_number 

loop_
_atom_site_label
_atom_site_fract_x
_atom_site_fract_y
_atom_site_fract_z
Al 0 0 0.000206457
Al 0.333333 0.333333 0.0499806
Al 0.666667 0.666667 0.100024
Al 0 0 0.149791
Al 0.333333 0.333333 0.199862
Al 0 0 0.250268
Al 0.333333 0.333333 0.300232
Al 0.666667 0.666667 0.350004
Al 0 0 0.399801
Al 0.333333 0.333333 0.45
Al 0 0 0.500199
Al 0.666667 0.666667 0.549996
Al 0.333333 0.333333 0.599768
Al 0 0 0.649732
Al 0.333333 0.333333 0.700138
Al 0 0 0.750209
Al 0.666667 0.666667 0.799976
Al 0.333333 0.333333 0.850019
Al 0 0 0.899794
Al 0.666667 0.666667 0.95
