data_test

_audit_creation_method generated by ABACUS

_cell_length_a 2.80729
_cell_length_b 2.80729
_cell_length_c 45.8428
_cell_angle_alpha 90
_cell_angle_beta 90
_cell_angle_gamma 60

_symmetry_space_group_name_H-M 
_symmetry_Int_Tables_number 

loop_
_atom_site_label
_atom_site_fract_x
_atom_site_fract_y
_atom_site_fract_z
Al 0 0 0.000115358
Al 0.333333 0.333333 0.0498084
Al 0.666667 0.666667 0.0998701
Al 0 0 0.149758
Al 0.333333 0.333333 0.199753
Al 0.733333 0.733333 0.25032
Al 0.0666667 0.0666667 0.300195
Al 0.4 0.4 0.350245
Al 0.733333 0.733333 0.399934
Al 0.0666667 0.0666667 0.45
Al 0.733333 0.733333 0.500066
Al 0.4 0.4 0.549755
Al 0.0666667 0.0666667 0.599805
Al 0.733333 0.733333 0.64968
Al 0.333333 0.333333 0.700247
Al 0 0 0.750242
Al 0.666667 0.666667 0.80013
Al 0.333333 0.333333 0.850192
Al 0 0 0.899885
Al 0.666667 0.666667 0.95
