data_test

_audit_creation_method generated by ABACUS

_cell_length_a 2.8058
_cell_length_b 2.8058
_cell_length_c 50.4003
_cell_angle_alpha 90
_cell_angle_beta 90
_cell_angle_gamma 60

_symmetry_space_group_name_H-M 
_symmetry_Int_Tables_number 

loop_
_atom_site_label
_atom_site_fract_x
_atom_site_fract_y
_atom_site_fract_z
Al 0 0 0.000140793
Al 0.333333 0.333333 0.0453309
Al 0.666667 0.666667 0.0908106
Al 0 0 0.135925
Al 0.333333 0.333333 0.181403
Al 0 0 0.227073
Al 0.433333 0.433333 0.273311
Al 0.766667 0.766667 0.318462
Al 0.1 0.1 0.363861
Al 0.433333 0.433333 0.409011
Al 0.766667 0.766667 0.454545
Al 0.433333 0.433333 0.50008
Al 0.1 0.1 0.545229
Al 0.766667 0.766667 0.590629
Al 0.433333 0.433333 0.63578
Al 0 0 0.682018
Al 0.333333 0.333333 0.727688
Al 0 0 0.773166
Al 0.666667 0.666667 0.81828
Al 0.333333 0.333333 0.86376
Al 0 0 0.90895
Al 0.666667 0.666667 0.954545
