data_test

_audit_creation_method generated by ABACUS

_cell_length_a 2.8058
_cell_length_b 2.8058
_cell_length_c 45.8185
_cell_angle_alpha 90
_cell_angle_beta 90
_cell_angle_gamma 60

_symmetry_space_group_name_H-M 
_symmetry_Int_Tables_number 

loop_
_atom_site_label
_atom_site_fract_x
_atom_site_fract_y
_atom_site_fract_z
Al 0 0 0.000131465
Al 0.333333 0.333333 0.049801
Al 0.666667 0.666667 0.0997933
Al 0 0 0.149547
Al 0.333333 0.333333 0.199469
Al 0.9 0.9 0.250625
Al 0.233333 0.233333 0.300483
Al 0.566667 0.566667 0.350275
Al 0.9 0.9 0.399932
Al 0.233333 0.233333 0.45
Al 0.9 0.9 0.500068
Al 0.566667 0.566667 0.549725
Al 0.233333 0.233333 0.599517
Al 0.9 0.9 0.649375
Al 0.333333 0.333333 0.700531
Al 0 0 0.750453
Al 0.666667 0.666667 0.800207
Al 0.333333 0.333333 0.850199
Al 0 0 0.899869
Al 0.666667 0.666667 0.95
