data_test

_audit_creation_method generated by ABACUS

_cell_length_a 2.8058
_cell_length_b 2.8058
_cell_length_c 50.4003
_cell_angle_alpha 90
_cell_angle_beta 90
_cell_angle_gamma 60

_symmetry_space_group_name_H-M 
_symmetry_Int_Tables_number 

loop_
_atom_site_label
_atom_site_fract_x
_atom_site_fract_y
_atom_site_fract_z
Al 0 0 0.000129662
Al 0.333333 0.333333 0.0452904
Al 0.666667 0.666667 0.0907664
Al 0 0 0.135917
Al 0.333333 0.333333 0.18145
Al 0 0 0.226876
Al 0.533333 0.533333 0.273302
Al 0.866667 0.866667 0.318642
Al 0.2 0.2 0.363916
Al 0.533333 0.533333 0.409035
Al 0.866667 0.866667 0.454545
Al 0.533333 0.533333 0.500055
Al 0.2 0.2 0.545175
Al 0.866667 0.866667 0.590449
Al 0.533333 0.533333 0.635789
Al 0 0 0.682215
Al 0.333333 0.333333 0.727641
Al 0 0 0.773174
Al 0.666667 0.666667 0.818325
Al 0.333333 0.333333 0.863801
Al 0 0 0.908961
Al 0.666667 0.666667 0.954545
