data_test

_audit_creation_method generated by ABACUS

_cell_length_a 2.80729
_cell_length_b 2.80729
_cell_length_c 50.4271
_cell_angle_alpha 90
_cell_angle_beta 90
_cell_angle_gamma 60

_symmetry_space_group_name_H-M 
_symmetry_Int_Tables_number 

loop_
_atom_site_label
_atom_site_fract_x
_atom_site_fract_y
_atom_site_fract_z
Al 0 0 0.000161613
Al 0.333333 0.333333 0.0454334
Al 0.666667 0.666667 0.0909201
Al 0 0 0.136118
Al 0.333333 0.333333 0.18159
Al 0 0 0.227151
Al 0.4 0.4 0.273061
Al 0.733333 0.733333 0.318269
Al 0.0666667 0.0666667 0.363731
Al 0.4 0.4 0.408974
Al 0.733333 0.733333 0.454545
Al 0.4 0.4 0.500117
Al 0.0666667 0.0666667 0.54536
Al 0.733333 0.733333 0.590822
Al 0.4 0.4 0.63603
Al 0 0 0.68194
Al 0.333333 0.333333 0.727501
Al 0 0 0.772973
Al 0.666667 0.666667 0.818171
Al 0.333333 0.333333 0.863658
Al 0 0 0.908929
Al 0.666667 0.666667 0.954545
