data_test

_audit_creation_method generated by ABACUS

_cell_length_a 2.80729
_cell_length_b 2.80729
_cell_length_c 45.8428
_cell_angle_alpha 90
_cell_angle_beta 90
_cell_angle_gamma 60

_symmetry_space_group_name_H-M 
_symmetry_Int_Tables_number 

loop_
_atom_site_label
_atom_site_fract_x
_atom_site_fract_y
_atom_site_fract_z
Al 1.63709e-11 1.63709e-11 0.000149831
Al 0.333333 0.333333 0.0498946
Al 0.666667 0.666667 0.100002
Al 1.63709e-11 1.63709e-11 0.149942
Al 0.333333 0.333333 0.2
Al 0.666667 0.666667 0.250058
Al 1.63709e-11 1.63709e-11 0.299998
Al 0.333333 0.333333 0.350105
Al 0.666667 0.666667 0.39985
Al 1.63709e-11 1.63709e-11 0.45
Al 0.666667 0.666667 0.50015
Al 0.333333 0.333333 0.549895
Al 1.63709e-11 1.63709e-11 0.600002
Al 0.666667 0.666667 0.649942
Al 0.333333 0.333333 0.7
Al 1.63709e-11 1.63709e-11 0.750058
Al 0.666667 0.666667 0.799998
Al 0.333333 0.333333 0.850105
Al 1.63709e-11 1.63709e-11 0.89985
Al 0.666667 0.666667 0.95
