data_test

_audit_creation_method generated by ABACUS

_cell_length_a 2.8058
_cell_length_b 2.8058
_cell_length_c 45.8185
_cell_angle_alpha 90
_cell_angle_beta 90
_cell_angle_gamma 60

_symmetry_space_group_name_H-M 
_symmetry_Int_Tables_number 

loop_
_atom_site_label
_atom_site_fract_x
_atom_site_fract_y
_atom_site_fract_z
Al 0 0 0.000194819
Al 0.333333 0.333333 0.0498867
Al 0.666667 0.666667 0.0999945
Al 0 0 0.14992
Al 0.333333 0.333333 0.19993
Al 0.7 0.7 0.250112
Al 0.0333333 0.0333333 0.300034
Al 0.366667 0.366667 0.350123
Al 0.7 0.7 0.399808
Al 0.0333333 0.0333333 0.45
Al 0.7 0.7 0.500192
Al 0.366667 0.366667 0.549877
Al 0.0333333 0.0333333 0.599966
Al 0.7 0.7 0.649888
Al 0.333333 0.333333 0.70007
Al 0 0 0.75008
Al 0.666667 0.666667 0.800005
Al 0.333333 0.333333 0.850113
Al 0 0 0.899805
Al 0.666667 0.666667 0.95
