data_test

_audit_creation_method generated by ABACUS

_cell_length_a 2.8058
_cell_length_b 2.8058
_cell_length_c 45.8185
_cell_angle_alpha 90
_cell_angle_beta 90
_cell_angle_gamma 60

_symmetry_space_group_name_H-M 
_symmetry_Int_Tables_number 

loop_
_atom_site_label
_atom_site_fract_x
_atom_site_fract_y
_atom_site_fract_z
Al 0 0 0.000166881
Al 0.333333 0.333333 0.0498249
Al 0.666667 0.666667 0.099889
Al 0 0 0.149766
Al 0.333333 0.333333 0.199751
Al 0.733333 0.733333 0.250303
Al 0.0666667 0.0666667 0.300185
Al 0.4 0.4 0.35023
Al 0.733333 0.733333 0.399876
Al 0.0666667 0.0666667 0.45
Al 0.733333 0.733333 0.500124
Al 0.4 0.4 0.54977
Al 0.0666667 0.0666667 0.599815
Al 0.733333 0.733333 0.649697
Al 0.333333 0.333333 0.700249
Al 0 0 0.750234
Al 0.666667 0.666667 0.800111
Al 0.333333 0.333333 0.850175
Al 0 0 0.899833
Al 0.666667 0.666667 0.95
