data_test

_audit_creation_method generated by ABACUS

_cell_length_a 2.8058
_cell_length_b 2.8058
_cell_length_c 50.4003
_cell_angle_alpha 90
_cell_angle_beta 90
_cell_angle_gamma 60

_symmetry_space_group_name_H-M 
_symmetry_Int_Tables_number 

loop_
_atom_site_label
_atom_site_fract_x
_atom_site_fract_y
_atom_site_fract_z
Al 0 0 0.00019619
Al 0.333333 0.333333 0.0453926
Al 0.666667 0.666667 0.0909543
Al 0 0 0.136225
Al 0.333333 0.333333 0.18187
Al 0 0 0.227291
Al 0.666667 0.666667 0.272702
Al 0 0 0.31833
Al 0.333333 0.333333 0.363643
Al 0.666667 0.666667 0.40889
Al 0 0 0.454545
Al 0.666667 0.666667 0.500201
Al 0.333333 0.333333 0.545448
Al 0 0 0.590761
Al 0.666667 0.666667 0.636389
Al 0 0 0.6818
Al 0.333333 0.333333 0.727221
Al 0 0 0.772866
Al 0.666667 0.666667 0.818137
Al 0.333333 0.333333 0.863698
Al 0 0 0.908895
Al 0.666667 0.666667 0.954545
