data_test

_audit_creation_method generated by ABACUS

_cell_length_a 2.80729
_cell_length_b 2.80729
_cell_length_c 45.8428
_cell_angle_alpha 90
_cell_angle_beta 90
_cell_angle_gamma 60

_symmetry_space_group_name_H-M 
_symmetry_Int_Tables_number 

loop_
_atom_site_label
_atom_site_fract_x
_atom_site_fract_y
_atom_site_fract_z
Al 0 0 0.000132979
Al 0.333333 0.333333 0.0498583
Al 0.666667 0.666667 0.0998662
Al 0 0 0.149635
Al 0.333333 0.333333 0.199554
Al 0.9 0.9 0.250561
Al 0.233333 0.233333 0.300377
Al 0.566667 0.566667 0.350218
Al 0.9 0.9 0.399952
Al 0.233333 0.233333 0.45
Al 0.9 0.9 0.500048
Al 0.566667 0.566667 0.549782
Al 0.233333 0.233333 0.599623
Al 0.9 0.9 0.649439
Al 0.333333 0.333333 0.700446
Al 0 0 0.750365
Al 0.666667 0.666667 0.800134
Al 0.333333 0.333333 0.850142
Al 0 0 0.899867
Al 0.666667 0.666667 0.95
