data_test

_audit_creation_method generated by ABACUS

_cell_length_a 2.8058
_cell_length_b 2.8058
_cell_length_c 45.8185
_cell_angle_alpha 90
_cell_angle_beta 90
_cell_angle_gamma 60

_symmetry_space_group_name_H-M 
_symmetry_Int_Tables_number 

loop_
_atom_site_label
_atom_site_fract_x
_atom_site_fract_y
_atom_site_fract_z
Al 0 0 0.000106347
Al 0.333333 0.333333 0.0497201
Al 0.666667 0.666667 0.099723
Al 0 0 0.149514
Al 0.333333 0.333333 0.199405
Al 0.8 0.8 0.250652
Al 0.133333 0.133333 0.300465
Al 0.466667 0.466667 0.350385
Al 0.8 0.8 0.399968
Al 0.133333 0.133333 0.45
Al 0.8 0.8 0.500032
Al 0.466667 0.466667 0.549615
Al 0.133333 0.133333 0.599535
Al 0.8 0.8 0.649348
Al 0.333333 0.333333 0.700595
Al 0 0 0.750486
Al 0.666667 0.666667 0.800277
Al 0.333333 0.333333 0.85028
Al 0 0 0.899894
Al 0.666667 0.666667 0.95
