data_test

_audit_creation_method generated by ABACUS

_cell_length_a 2.80729
_cell_length_b 2.80729
_cell_length_c 50.4271
_cell_angle_alpha 90
_cell_angle_beta 90
_cell_angle_gamma 60

_symmetry_space_group_name_H-M 
_symmetry_Int_Tables_number 

loop_
_atom_site_label
_atom_site_fract_x
_atom_site_fract_y
_atom_site_fract_z
Al 0 0 0.000117976
Al 0.333333 0.333333 0.0453587
Al 0.666667 0.666667 0.0908431
Al 0 0 0.136015
Al 0.333333 0.333333 0.181485
Al 0 0 0.226973
Al 0.433333 0.433333 0.273206
Al 0.766667 0.766667 0.318409
Al 0.1 0.1 0.363823
Al 0.433333 0.433333 0.40902
Al 0.766667 0.766667 0.454545
Al 0.433333 0.433333 0.500071
Al 0.1 0.1 0.545268
Al 0.766667 0.766667 0.590682
Al 0.433333 0.433333 0.635885
Al 0 0 0.682118
Al 0.333333 0.333333 0.727606
Al 0 0 0.773075
Al 0.666667 0.666667 0.818248
Al 0.333333 0.333333 0.863732
Al 0 0 0.908973
Al 0.666667 0.666667 0.954545
