data_test

_audit_creation_method generated by ABACUS

_cell_length_a 2.8058
_cell_length_b 2.8058
_cell_length_c 50.4003
_cell_angle_alpha 90
_cell_angle_beta 90
_cell_angle_gamma 60

_symmetry_space_group_name_H-M 
_symmetry_Int_Tables_number 

loop_
_atom_site_label
_atom_site_fract_x
_atom_site_fract_y
_atom_site_fract_z
Al 0 0 0.00012346
Al 0.333333 0.333333 0.0452869
Al 0.666667 0.666667 0.0907592
Al 0 0 0.135875
Al 0.333333 0.333333 0.181366
Al 0 0 0.22693
Al 0.466667 0.466667 0.273387
Al 0.8 0.8 0.318578
Al 0.133333 0.133333 0.363919
Al 0.466667 0.466667 0.409035
Al 0.8 0.8 0.454545
Al 0.466667 0.466667 0.500056
Al 0.133333 0.133333 0.545172
Al 0.8 0.8 0.590513
Al 0.466667 0.466667 0.635704
Al 0 0 0.682161
Al 0.333333 0.333333 0.727724
Al 0 0 0.773216
Al 0.666667 0.666667 0.818332
Al 0.333333 0.333333 0.863804
Al 0 0 0.908967
Al 0.666667 0.666667 0.954545
