data_test

_audit_creation_method generated by ABACUS

_cell_length_a 2.8058
_cell_length_b 2.8058
_cell_length_c 50.4003
_cell_angle_alpha 90
_cell_angle_beta 90
_cell_angle_gamma 60

_symmetry_space_group_name_H-M 
_symmetry_Int_Tables_number 

loop_
_atom_site_label
_atom_site_fract_x
_atom_site_fract_y
_atom_site_fract_z
Al 1 1 0.00019893
Al 0.333333 0.333333 0.0454478
Al 0.666667 0.666667 0.0909718
Al 1 1 0.136129
Al 0.333333 0.333333 0.181594
Al 1 1 0.227497
Al 0.333333 0.333333 0.272962
Al 0.666667 0.666667 0.318119
Al 1 1 0.363643
Al 0.333333 0.333333 0.408892
Al 0.666667 0.666667 0.454545
Al 0.333333 0.333333 0.500199
Al 1 1 0.545448
Al 0.666667 0.666667 0.590972
Al 0.333333 0.333333 0.636129
Al 1 1 0.681594
Al 0.333333 0.333333 0.727497
Al 1 1 0.772962
Al 0.666667 0.666667 0.818119
Al 0.333333 0.333333 0.863643
Al 1 1 0.908892
Al 0.666667 0.666667 0.954545
