data_test

_audit_creation_method generated by ABACUS

_cell_length_a 2.80729
_cell_length_b 2.80729
_cell_length_c 45.8428
_cell_angle_alpha 90
_cell_angle_beta 90
_cell_angle_gamma 60

_symmetry_space_group_name_H-M 
_symmetry_Int_Tables_number 

loop_
_atom_site_label
_atom_site_fract_x
_atom_site_fract_y
_atom_site_fract_z
Al 0 0 7.69074e-05
Al 0.333333 0.333333 0.0497458
Al 0.666667 0.666667 0.0997383
Al 0 0 0.14956
Al 0.333333 0.333333 0.199446
Al 0.8 0.8 0.25064
Al 0.133333 0.133333 0.300422
Al 0.466667 0.466667 0.35036
Al 0.8 0.8 0.400005
Al 0.133333 0.133333 0.45
Al 0.8 0.8 0.499995
Al 0.466667 0.466667 0.54964
Al 0.133333 0.133333 0.599578
Al 0.8 0.8 0.64936
Al 0.333333 0.333333 0.700554
Al 0 0 0.75044
Al 0.666667 0.666667 0.800262
Al 0.333333 0.333333 0.850254
Al 0 0 0.899923
Al 0.666667 0.666667 0.95
