data_test

_audit_creation_method generated by ABACUS

_cell_length_a 2.8058
_cell_length_b 2.8058
_cell_length_c 50.4003
_cell_angle_alpha 90
_cell_angle_beta 90
_cell_angle_gamma 60

_symmetry_space_group_name_H-M 
_symmetry_Int_Tables_number 

loop_
_atom_site_label
_atom_site_fract_x
_atom_site_fract_y
_atom_site_fract_z
Al 0 0 0.000181949
Al 0.333333 0.333333 0.045406
Al 0.666667 0.666667 0.0909145
Al 0 0 0.136073
Al 0.333333 0.333333 0.181546
Al 0 0 0.227433
Al 0.366667 0.366667 0.273043
Al 0.7 0.7 0.318206
Al 0.0333333 0.0333333 0.363708
Al 0.366667 0.366667 0.408925
Al 0.7 0.7 0.454545
Al 0.366667 0.366667 0.500166
Al 0.0333333 0.0333333 0.545383
Al 0.7 0.7 0.590885
Al 0.366667 0.366667 0.636048
Al 0 0 0.681658
Al 0.333333 0.333333 0.727545
Al 0 0 0.773018
Al 0.666667 0.666667 0.818176
Al 0.333333 0.333333 0.863685
Al 0 0 0.908909
Al 0.666667 0.666667 0.954545
