data_test

_audit_creation_method generated by ABACUS

_cell_length_a 2.80729
_cell_length_b 2.80729
_cell_length_c 50.4271
_cell_angle_alpha 90
_cell_angle_beta 90
_cell_angle_gamma 60

_symmetry_space_group_name_H-M 
_symmetry_Int_Tables_number 

loop_
_atom_site_label
_atom_site_fract_x
_atom_site_fract_y
_atom_site_fract_z
Al 0 0 0
Al 0.333333 0.333333 0.0454545
Al 0.666667 0.666667 0.0909091
Al 0 0 0.136364
Al 0.333333 0.333333 0.181818
Al 0 0 0.227273
Al 0.533333 0.533333 0.272727
Al 0.866667 0.866667 0.318182
Al 0.2 0.2 0.363636
Al 0.533333 0.533333 0.409091
Al 0.866667 0.866667 0.454545
Al 0.533333 0.533333 0.5
Al 0.2 0.2 0.545455
Al 0.866667 0.866667 0.590909
Al 0.533333 0.533333 0.636364
Al 0 0 0.681818
Al 0.333333 0.333333 0.727273
Al 0 0 0.772727
Al 0.666667 0.666667 0.818182
Al 0.333333 0.333333 0.863636
Al 0 0 0.909091
Al 0.666667 0.666667 0.954545
