data_test

_audit_creation_method generated by ABACUS

_cell_length_a 2.80729
_cell_length_b 2.80729
_cell_length_c 50.4271
_cell_angle_alpha 90
_cell_angle_beta 90
_cell_angle_gamma 60

_symmetry_space_group_name_H-M 
_symmetry_Int_Tables_number 

loop_
_atom_site_label
_atom_site_fract_x
_atom_site_fract_y
_atom_site_fract_z
Al 0 0 0.000158079
Al 0.333333 0.333333 0.0454545
Al 0.666667 0.666667 0.0909748
Al 0 0 0.136208
Al 0.333333 0.333333 0.181681
Al 0 0 0.227317
Al 0.366667 0.366667 0.272927
Al 0.7 0.7 0.318151
Al 0.0333333 0.0333333 0.363648
Al 0.366667 0.366667 0.408932
Al 0.7 0.7 0.454545
Al 0.366667 0.366667 0.500159
Al 0.0333333 0.0333333 0.545443
Al 0.7 0.7 0.59094
Al 0.366667 0.366667 0.636164
Al 0 0 0.681773
Al 0.333333 0.333333 0.72741
Al 0 0 0.772883
Al 0.666667 0.666667 0.818116
Al 0.333333 0.333333 0.863636
Al 0 0 0.908933
Al 0.666667 0.666667 0.954545
