data_test

_audit_creation_method generated by ABACUS

_cell_length_a 2.80729
_cell_length_b 2.80729
_cell_length_c 50.4271
_cell_angle_alpha 90
_cell_angle_beta 90
_cell_angle_gamma 60

_symmetry_space_group_name_H-M 
_symmetry_Int_Tables_number 

loop_
_atom_site_label
_atom_site_fract_x
_atom_site_fract_y
_atom_site_fract_z
Al 0 0 8.72065e-05
Al 0.333333 0.333333 0.0452865
Al 0.666667 0.666667 0.0907588
Al 0 0 0.135945
Al 0.333333 0.333333 0.181474
Al 0 0 0.22684
Al 0.533333 0.533333 0.273306
Al 0.866667 0.866667 0.318618
Al 0.2 0.2 0.363897
Al 0.533333 0.533333 0.40907
Al 0.866667 0.866667 0.454545
Al 0.533333 0.533333 0.500021
Al 0.2 0.2 0.545194
Al 0.866667 0.866667 0.590473
Al 0.533333 0.533333 0.635785
Al 0 0 0.682251
Al 0.333333 0.333333 0.727617
Al 0 0 0.773146
Al 0.666667 0.666667 0.818332
Al 0.333333 0.333333 0.863804
Al 0 0 0.909004
Al 0.666667 0.666667 0.954545
