data_test

_audit_creation_method generated by ABACUS

_cell_length_a 2.8058
_cell_length_b 2.8058
_cell_length_c 45.8185
_cell_angle_alpha 90
_cell_angle_beta 90
_cell_angle_gamma 60

_symmetry_space_group_name_H-M 
_symmetry_Int_Tables_number 

loop_
_atom_site_label
_atom_site_fract_x
_atom_site_fract_y
_atom_site_fract_z
Al 0 0 9.5624e-05
Al 0.333333 0.333333 0.049712
Al 0.666667 0.666667 0.0996942
Al 0 0 0.149456
Al 0.333333 0.333333 0.199334
Al 0.833333 0.833333 0.25073
Al 0.166667 0.166667 0.300537
Al 0.5 0.5 0.350406
Al 0.833333 0.833333 0.399986
Al 0.166667 0.166667 0.45
Al 0.833333 0.833333 0.500014
Al 0.5 0.5 0.549594
Al 0.166667 0.166667 0.599463
Al 0.833333 0.833333 0.64927
Al 0.333333 0.333333 0.700666
Al 0 0 0.750544
Al 0.666667 0.666667 0.800306
Al 0.333333 0.333333 0.850288
Al 0 0 0.899904
Al 0.666667 0.666667 0.95
