data_test

_audit_creation_method generated by ABACUS

_cell_length_a 2.8058
_cell_length_b 2.8058
_cell_length_c 45.8185
_cell_angle_alpha 90
_cell_angle_beta 90
_cell_angle_gamma 60

_symmetry_space_group_name_H-M 
_symmetry_Int_Tables_number 

loop_
_atom_site_label
_atom_site_fract_x
_atom_site_fract_y
_atom_site_fract_z
Al 0 0 0.000103539
Al 0.333333 0.333333 0.0497401
Al 0.666667 0.666667 0.0997174
Al 0 0 0.149472
Al 0.333333 0.333333 0.19937
Al 0.866667 0.866667 0.250716
Al 0.2 0.2 0.300546
Al 0.533333 0.533333 0.350368
Al 0.866667 0.866667 0.399977
Al 0.2 0.2 0.45
Al 0.866667 0.866667 0.500023
Al 0.533333 0.533333 0.549632
Al 0.2 0.2 0.599454
Al 0.866667 0.866667 0.649284
Al 0.333333 0.333333 0.70063
Al 0 0 0.750528
Al 0.666667 0.666667 0.800283
Al 0.333333 0.333333 0.85026
Al 0 0 0.899896
Al 0.666667 0.666667 0.95
