data_test

_audit_creation_method generated by ABACUS

_cell_length_a 2.80729
_cell_length_b 2.80729
_cell_length_c 45.8428
_cell_angle_alpha 90
_cell_angle_beta 90
_cell_angle_gamma 60

_symmetry_space_group_name_H-M 
_symmetry_Int_Tables_number 

loop_
_atom_site_label
_atom_site_fract_x
_atom_site_fract_y
_atom_site_fract_z
Al 0 0 0
Al 0.333333 0.333333 0.05
Al 0.666667 0.666667 0.1
Al 0 0 0.15
Al 0.333333 0.333333 0.2
Al 0.833333 0.833333 0.25
Al 0.166667 0.166667 0.3
Al 0.5 0.5 0.35
Al 0.833333 0.833333 0.4
Al 0.166667 0.166667 0.45
Al 0.833333 0.833333 0.5
Al 0.5 0.5 0.55
Al 0.166667 0.166667 0.6
Al 0.833333 0.833333 0.65
Al 0.333333 0.333333 0.7
Al 0 0 0.75
Al 0.666667 0.666667 0.8
Al 0.333333 0.333333 0.85
Al 0 0 0.9
Al 0.666667 0.666667 0.95
