data_test

_audit_creation_method generated by ABACUS

_cell_length_a 2.8058
_cell_length_b 2.8058
_cell_length_c 45.8185
_cell_angle_alpha 90
_cell_angle_beta 90
_cell_angle_gamma 60

_symmetry_space_group_name_H-M 
_symmetry_Int_Tables_number 

loop_
_atom_site_label
_atom_site_fract_x
_atom_site_fract_y
_atom_site_fract_z
Al 1.63709e-11 1.63709e-11 0.000186916
Al 0.333333 0.333333 0.0498819
Al 0.666667 0.666667 0.100013
Al 1.63709e-11 1.63709e-11 0.149961
Al 0.333333 0.333333 0.2
Al 0.666667 0.666667 0.250039
Al 1.63709e-11 1.63709e-11 0.299987
Al 0.333333 0.333333 0.350118
Al 0.666667 0.666667 0.399813
Al 1.63709e-11 1.63709e-11 0.45
Al 0.666667 0.666667 0.500187
Al 0.333333 0.333333 0.549882
Al 1.63709e-11 1.63709e-11 0.600013
Al 0.666667 0.666667 0.649961
Al 0.333333 0.333333 0.7
Al 1.63709e-11 1.63709e-11 0.750039
Al 0.666667 0.666667 0.799987
Al 0.333333 0.333333 0.850118
Al 1.63709e-11 1.63709e-11 0.899813
Al 0.666667 0.666667 0.95
