data_test

_audit_creation_method generated by ABACUS

_cell_length_a 2.80729
_cell_length_b 2.80729
_cell_length_c 45.8428
_cell_angle_alpha 90
_cell_angle_beta 90
_cell_angle_gamma 60

_symmetry_space_group_name_H-M 
_symmetry_Int_Tables_number 

loop_
_atom_site_label
_atom_site_fract_x
_atom_site_fract_y
_atom_site_fract_z
Al 0 0 0.000131678
Al 0.333333 0.333333 0.0498625
Al 0.666667 0.666667 0.0999509
Al 0 0 0.149872
Al 0.333333 0.333333 0.199923
Al 0.7 0.7 0.250155
Al 0.0333333 0.0333333 0.300062
Al 0.366667 0.366667 0.350161
Al 0.7 0.7 0.399887
Al 0.0333333 0.0333333 0.45
Al 0.7 0.7 0.500113
Al 0.366667 0.366667 0.549839
Al 0.0333333 0.0333333 0.599938
Al 0.7 0.7 0.649845
Al 0.333333 0.333333 0.700077
Al 0 0 0.750128
Al 0.666667 0.666667 0.800049
Al 0.333333 0.333333 0.850138
Al 0 0 0.899868
Al 0.666667 0.666667 0.95
