data_test

_audit_creation_method generated by ABACUS

_cell_length_a 2.80729
_cell_length_b 2.80729
_cell_length_c 45.8428
_cell_angle_alpha 90
_cell_angle_beta 90
_cell_angle_gamma 60

_symmetry_space_group_name_H-M 
_symmetry_Int_Tables_number 

loop_
_atom_site_label
_atom_site_fract_x
_atom_site_fract_y
_atom_site_fract_z
Al 0 0 0.000160602
Al 0.333333 0.333333 0.049932
Al 0.666667 0.666667 0.099971
Al 0 0 0.149744
Al 0.333333 0.333333 0.199718
Al 0.933333 0.933333 0.250405
Al 0.266667 0.266667 0.300278
Al 0.6 0.6 0.350105
Al 0.933333 0.933333 0.399896
Al 0.266667 0.266667 0.45
Al 0.933333 0.933333 0.500104
Al 0.6 0.6 0.549895
Al 0.266667 0.266667 0.599722
Al 0.933333 0.933333 0.649595
Al 0.333333 0.333333 0.700282
Al 0 0 0.750256
Al 0.666667 0.666667 0.800029
Al 0.333333 0.333333 0.850068
Al 0 0 0.899839
Al 0.666667 0.666667 0.95
