data_test

_audit_creation_method generated by ABACUS

_cell_length_a 2.8058
_cell_length_b 2.8058
_cell_length_c 50.4003
_cell_angle_alpha 90
_cell_angle_beta 90
_cell_angle_gamma 60

_symmetry_space_group_name_H-M 
_symmetry_Int_Tables_number 

loop_
_atom_site_label
_atom_site_fract_x
_atom_site_fract_y
_atom_site_fract_z
Al 0 0 0.000187065
Al 0.333333 0.333333 0.045371
Al 0.666667 0.666667 0.0908914
Al 0 0 0.136102
Al 0.333333 0.333333 0.181701
Al 0 0 0.227115
Al 0.6 0.6 0.272962
Al 0.933333 0.933333 0.31848
Al 0.266667 0.266667 0.363769
Al 0.6 0.6 0.408958
Al 0.933333 0.933333 0.454545
Al 0.6 0.6 0.500133
Al 0.266667 0.266667 0.545322
Al 0.933333 0.933333 0.590611
Al 0.6 0.6 0.636129
Al 0 0 0.681976
Al 0.333333 0.333333 0.72739
Al 0 0 0.772989
Al 0.666667 0.666667 0.8182
Al 0.333333 0.333333 0.86372
Al 0 0 0.908904
Al 0.666667 0.666667 0.954545
