data_test

_audit_creation_method generated by ABACUS

_cell_length_a 2.80729
_cell_length_b 2.80729
_cell_length_c 50.4271
_cell_angle_alpha 90
_cell_angle_beta 90
_cell_angle_gamma 60

_symmetry_space_group_name_H-M 
_symmetry_Int_Tables_number 

loop_
_atom_site_label
_atom_site_fract_x
_atom_site_fract_y
_atom_site_fract_z
Al 0 0 0.000137988
Al 0.333333 0.333333 0.0453313
Al 0.666667 0.666667 0.0908525
Al 0 0 0.13608
Al 0.333333 0.333333 0.181676
Al 0 0 0.2271
Al 0.6 0.6 0.273012
Al 0.933333 0.933333 0.318491
Al 0.266667 0.266667 0.363775
Al 0.6 0.6 0.408998
Al 0.933333 0.933333 0.454545
Al 0.6 0.6 0.500093
Al 0.266667 0.266667 0.545316
Al 0.933333 0.933333 0.5906
Al 0.6 0.6 0.636079
Al 0 0 0.681991
Al 0.333333 0.333333 0.727415
Al 0 0 0.773011
Al 0.666667 0.666667 0.818238
Al 0.333333 0.333333 0.86376
Al 0 0 0.908953
Al 0.666667 0.666667 0.954545
