data_test

_audit_creation_method generated by ABACUS

_cell_length_a 2.80729
_cell_length_b 2.80729
_cell_length_c 45.8428
_cell_angle_alpha 90
_cell_angle_beta 90
_cell_angle_gamma 60

_symmetry_space_group_name_H-M 
_symmetry_Int_Tables_number 

loop_
_atom_site_label
_atom_site_fract_x
_atom_site_fract_y
_atom_site_fract_z
Al 0 0 0.000164775
Al 0.333333 0.333333 0.0499901
Al 0.666667 0.666667 0.100052
Al 0 0 0.149842
Al 0.333333 0.333333 0.199864
Al 0.966667 0.966667 0.250222
Al 0.3 0.3 0.300147
Al 0.633333 0.633333 0.349975
Al 0.966667 0.966667 0.399827
Al 0.3 0.3 0.45
Al 0.966667 0.966667 0.500173
Al 0.633333 0.633333 0.550025
Al 0.3 0.3 0.599853
Al 0.966667 0.966667 0.649778
Al 0.333333 0.333333 0.700136
Al 0 0 0.750158
Al 0.666667 0.666667 0.799948
Al 0.333333 0.333333 0.85001
Al 0 0 0.899835
Al 0.666667 0.666667 0.95
