data_test

_audit_creation_method generated by ABACUS

_cell_length_a 2.80729
_cell_length_b 2.80729
_cell_length_c 50.4271
_cell_angle_alpha 90
_cell_angle_beta 90
_cell_angle_gamma 60

_symmetry_space_group_name_H-M 
_symmetry_Int_Tables_number 

loop_
_atom_site_label
_atom_site_fract_x
_atom_site_fract_y
_atom_site_fract_z
Al 0 0 0.000168362
Al 0.333333 0.333333 0.0453778
Al 0.666667 0.666667 0.0909453
Al 0 0 0.136211
Al 0.333333 0.333333 0.181837
Al 0 0 0.227288
Al 0.666667 0.666667 0.272754
Al 0 0 0.318328
Al 0.333333 0.333333 0.363628
Al 0.666667 0.666667 0.408921
Al 0 0 0.454545
Al 0.666667 0.666667 0.50017
Al 0.333333 0.333333 0.545463
Al 0 0 0.590763
Al 0.666667 0.666667 0.636337
Al 0 0 0.681803
Al 0.333333 0.333333 0.727254
Al 0 0 0.77288
Al 0.666667 0.666667 0.818146
Al 0.333333 0.333333 0.863713
Al 0 0 0.908923
Al 0.666667 0.666667 0.954545
