data_test

_audit_creation_method generated by ABACUS

_cell_length_a 2.80729
_cell_length_b 2.80729
_cell_length_c 45.8428
_cell_angle_alpha 90
_cell_angle_beta 90
_cell_angle_gamma 60

_symmetry_space_group_name_H-M 
_symmetry_Int_Tables_number 

loop_
_atom_site_label
_atom_site_fract_x
_atom_site_fract_y
_atom_site_fract_z
Al 0 0 8.23273e-05
Al 0.333333 0.333333 0.0497548
Al 0.666667 0.666667 0.0997351
Al 0 0 0.149529
Al 0.333333 0.333333 0.199395
Al 0.833333 0.833333 0.2507
Al 0.166667 0.166667 0.300466
Al 0.5 0.5 0.350358
Al 0.833333 0.833333 0.400012
Al 0.166667 0.166667 0.45
Al 0.833333 0.833333 0.499988
Al 0.5 0.5 0.549642
Al 0.166667 0.166667 0.599534
Al 0.833333 0.833333 0.6493
Al 0.333333 0.333333 0.700605
Al 0 0 0.750471
Al 0.666667 0.666667 0.800265
Al 0.333333 0.333333 0.850245
Al 0 0 0.899918
Al 0.666667 0.666667 0.95
