data_test

_audit_creation_method generated by ABACUS

_cell_length_a 2.80729
_cell_length_b 2.80729
_cell_length_c 45.8428
_cell_angle_alpha 90
_cell_angle_beta 90
_cell_angle_gamma 60

_symmetry_space_group_name_H-M 
_symmetry_Int_Tables_number 

loop_
_atom_site_label
_atom_site_fract_x
_atom_site_fract_y
_atom_site_fract_z
Al 0 0 0.00015863
Al 0.333333 0.333333 0.0499931
Al 0.666667 0.666667 0.100066
Al 0 0 0.149869
Al 0.333333 0.333333 0.199929
Al 0 0 0.250157
Al 0.333333 0.333333 0.300122
Al 0.666667 0.666667 0.349958
Al 0 0 0.399829
Al 0.333333 0.333333 0.45
Al 0 0 0.500171
Al 0.666667 0.666667 0.550042
Al 0.333333 0.333333 0.599878
Al 0 0 0.649843
Al 0.333333 0.333333 0.700071
Al 0 0 0.750131
Al 0.666667 0.666667 0.799934
Al 0.333333 0.333333 0.850007
Al 0 0 0.899841
Al 0.666667 0.666667 0.95
