data_test

_audit_creation_method generated by ABACUS

_cell_length_a 2.8058
_cell_length_b 2.8058
_cell_length_c 45.8185
_cell_angle_alpha 90
_cell_angle_beta 90
_cell_angle_gamma 60

_symmetry_space_group_name_H-M 
_symmetry_Int_Tables_number 

loop_
_atom_site_label
_atom_site_fract_x
_atom_site_fract_y
_atom_site_fract_z
Al 0 0 0.000166146
Al 0.333333 0.333333 0.0498845
Al 0.666667 0.666667 0.0999004
Al 0 0 0.149661
Al 0.333333 0.333333 0.199627
Al 0.933333 0.933333 0.250475
Al 0.266667 0.266667 0.300378
Al 0.6 0.6 0.350161
Al 0.933333 0.933333 0.39988
Al 0.266667 0.266667 0.45
Al 0.933333 0.933333 0.50012
Al 0.6 0.6 0.549839
Al 0.266667 0.266667 0.599622
Al 0.933333 0.933333 0.649525
Al 0.333333 0.333333 0.700373
Al 0 0 0.750339
Al 0.666667 0.666667 0.8001
Al 0.333333 0.333333 0.850115
Al 0 0 0.899834
Al 0.666667 0.666667 0.95
