data_test

_audit_creation_method generated by ABACUS

_cell_length_a 2.8058
_cell_length_b 2.8058
_cell_length_c 50.4003
_cell_angle_alpha 90
_cell_angle_beta 90
_cell_angle_gamma 60

_symmetry_space_group_name_H-M 
_symmetry_Int_Tables_number 

loop_
_atom_site_label
_atom_site_fract_x
_atom_site_fract_y
_atom_site_fract_z
Al 0 0 0.000169281
Al 0.333333 0.333333 0.0453774
Al 0.666667 0.666667 0.0908657
Al 0 0 0.136001
Al 0.333333 0.333333 0.181472
Al 0 0 0.227265
Al 0.4 0.4 0.273173
Al 0.733333 0.733333 0.318325
Al 0.0666667 0.0666667 0.363782
Al 0.4 0.4 0.408968
Al 0.733333 0.733333 0.454545
Al 0.4 0.4 0.500123
Al 0.0666667 0.0666667 0.545309
Al 0.733333 0.733333 0.590766
Al 0.4 0.4 0.635918
Al 0 0 0.681826
Al 0.333333 0.333333 0.727619
Al 0 0 0.77309
Al 0.666667 0.666667 0.818225
Al 0.333333 0.333333 0.863714
Al 0 0 0.908922
Al 0.666667 0.666667 0.954545
