data_test

_audit_creation_method generated by ABACUS

_cell_length_a 2.8058
_cell_length_b 2.8058
_cell_length_c 50.4003
_cell_angle_alpha 90
_cell_angle_beta 90
_cell_angle_gamma 60

_symmetry_space_group_name_H-M 
_symmetry_Int_Tables_number 

loop_
_atom_site_label
_atom_site_fract_x
_atom_site_fract_y
_atom_site_fract_z
Al 0 0 0.000199136
Al 0.333333 0.333333 0.0453971
Al 0.666667 0.666667 0.0909526
Al 0 0 0.136203
Al 0.333333 0.333333 0.18183
Al 0 0 0.227238
Al 0.633333 0.633333 0.272778
Al 0.966667 0.966667 0.318358
Al 0.3 0.3 0.363654
Al 0.633333 0.633333 0.408897
Al 0.966667 0.966667 0.454545
Al 0.633333 0.633333 0.500194
Al 0.3 0.3 0.545437
Al 0.966667 0.966667 0.590733
Al 0.633333 0.633333 0.636313
Al 0 0 0.681853
Al 0.333333 0.333333 0.727261
Al 0 0 0.772888
Al 0.666667 0.666667 0.818138
Al 0.333333 0.333333 0.863694
Al 0 0 0.908892
Al 0.666667 0.666667 0.954545
