data_test

_audit_creation_method generated by ABACUS

_cell_length_a 2.8058
_cell_length_b 2.8058
_cell_length_c 50.4003
_cell_angle_alpha 90
_cell_angle_beta 90
_cell_angle_gamma 60

_symmetry_space_group_name_H-M 
_symmetry_Int_Tables_number 

loop_
_atom_site_label
_atom_site_fract_x
_atom_site_fract_y
_atom_site_fract_z
Al 0 0 0.000110747
Al 0.333333 0.333333 0.0452732
Al 0.666667 0.666667 0.0907411
Al 0 0 0.135869
Al 0.333333 0.333333 0.181383
Al 0 0 0.226859
Al 0.5 0.5 0.273387
Al 0.833333 0.833333 0.318641
Al 0.166667 0.166667 0.363933
Al 0.5 0.5 0.409045
Al 0.833333 0.833333 0.454545
Al 0.5 0.5 0.500046
Al 0.166667 0.166667 0.545158
Al 0.833333 0.833333 0.59045
Al 0.5 0.5 0.635704
Al 0 0 0.682232
Al 0.333333 0.333333 0.727708
Al 0 0 0.773222
Al 0.666667 0.666667 0.81835
Al 0.333333 0.333333 0.863818
Al 0 0 0.90898
Al 0.666667 0.666667 0.954545
