data_test

_audit_creation_method generated by ABACUS

_cell_length_a 2.80729
_cell_length_b 2.80729
_cell_length_c 50.4271
_cell_angle_alpha 90
_cell_angle_beta 90
_cell_angle_gamma 60

_symmetry_space_group_name_H-M 
_symmetry_Int_Tables_number 

loop_
_atom_site_label
_atom_site_fract_x
_atom_site_fract_y
_atom_site_fract_z
Al 1 1 0.000155822
Al 0.333333 0.333333 0.0454553
Al 0.666667 0.666667 0.090976
Al 1 1 0.136224
Al 0.333333 0.333333 0.181704
Al 1 1 0.227387
Al 0.333333 0.333333 0.272867
Al 0.666667 0.666667 0.318115
Al 1 1 0.363636
Al 0.333333 0.333333 0.408935
Al 0.666667 0.666667 0.454545
Al 0.333333 0.333333 0.500156
Al 1 1 0.545455
Al 0.666667 0.666667 0.590976
Al 0.333333 0.333333 0.636224
Al 1 1 0.681704
Al 0.333333 0.333333 0.727387
Al 1 1 0.772867
Al 0.666667 0.666667 0.818115
Al 0.333333 0.333333 0.863636
Al 1 1 0.908935
Al 0.666667 0.666667 0.954545
