data_test

_audit_creation_method generated by ABACUS

_cell_length_a 2.80729
_cell_length_b 2.80729
_cell_length_c 45.8428
_cell_angle_alpha 90
_cell_angle_beta 90
_cell_angle_gamma 60

_symmetry_space_group_name_H-M 
_symmetry_Int_Tables_number 

loop_
_atom_site_label
_atom_site_fract_x
_atom_site_fract_y
_atom_site_fract_z
Al 0 0 0.000104517
Al 0.333333 0.333333 0.0497948
Al 0.666667 0.666667 0.0997815
Al 0 0 0.149556
Al 0.333333 0.333333 0.199435
Al 0.866667 0.866667 0.25067
Al 0.2 0.2 0.300448
Al 0.533333 0.533333 0.350309
Al 0.866667 0.866667 0.399994
Al 0.2 0.2 0.45
Al 0.866667 0.866667 0.500006
Al 0.533333 0.533333 0.549691
Al 0.2 0.2 0.599552
Al 0.866667 0.866667 0.64933
Al 0.333333 0.333333 0.700565
Al 0 0 0.750444
Al 0.666667 0.666667 0.800218
Al 0.333333 0.333333 0.850205
Al 0 0 0.899895
Al 0.666667 0.666667 0.95
