data_test

_audit_creation_method generated by ABACUS

_cell_length_a 2.8058
_cell_length_b 2.8058
_cell_length_c 45.8185
_cell_angle_alpha 90
_cell_angle_beta 90
_cell_angle_gamma 60

_symmetry_space_group_name_H-M 
_symmetry_Int_Tables_number 

loop_
_atom_site_label
_atom_site_fract_x
_atom_site_fract_y
_atom_site_fract_z
Al 0 0 0.000203182
Al 0.333333 0.333333 0.0499608
Al 0.666667 0.666667 0.0999927
Al 0 0 0.149757
Al 0.333333 0.333333 0.199791
Al 0.966667 0.966667 0.250329
Al 0.3 0.3 0.300265
Al 0.633333 0.633333 0.350049
Al 0.966667 0.966667 0.39982
Al 0.3 0.3 0.45
Al 0.966667 0.966667 0.50018
Al 0.633333 0.633333 0.549951
Al 0.3 0.3 0.599735
Al 0.966667 0.966667 0.649671
Al 0.333333 0.333333 0.700209
Al 0 0 0.750243
Al 0.666667 0.666667 0.800007
Al 0.333333 0.333333 0.850039
Al 0 0 0.899797
Al 0.666667 0.666667 0.95
