data_test

_audit_creation_method generated by ABACUS

_cell_length_a 2.80729
_cell_length_b 2.80729
_cell_length_c 50.4271
_cell_angle_alpha 90
_cell_angle_beta 90
_cell_angle_gamma 60

_symmetry_space_group_name_H-M 
_symmetry_Int_Tables_number 

loop_
_atom_site_label
_atom_site_fract_x
_atom_site_fract_y
_atom_site_fract_z
Al 0 0 9.30927e-05
Al 0.333333 0.333333 0.0453169
Al 0.666667 0.666667 0.0907878
Al 0 0 0.135949
Al 0.333333 0.333333 0.181435
Al 0 0 0.22685
Al 0.466667 0.466667 0.273308
Al 0.8 0.8 0.31852
Al 0.133333 0.133333 0.363875
Al 0.466667 0.466667 0.409052
Al 0.8 0.8 0.454545
Al 0.466667 0.466667 0.500039
Al 0.133333 0.133333 0.545216
Al 0.8 0.8 0.59057
Al 0.466667 0.466667 0.635783
Al 0 0 0.682241
Al 0.333333 0.333333 0.727656
Al 0 0 0.773142
Al 0.666667 0.666667 0.818303
Al 0.333333 0.333333 0.863774
Al 0 0 0.908998
Al 0.666667 0.666667 0.954545
