data_test

_audit_creation_method generated by ABACUS

_cell_length_a 2.80729
_cell_length_b 2.80729
_cell_length_c 50.4271
_cell_angle_alpha 90
_cell_angle_beta 90
_cell_angle_gamma 60

_symmetry_space_group_name_H-M 
_symmetry_Int_Tables_number 

loop_
_atom_site_label
_atom_site_fract_x
_atom_site_fract_y
_atom_site_fract_z
Al 0 0 8.42419e-05
Al 0.333333 0.333333 0.0453009
Al 0.666667 0.666667 0.0907651
Al 0 0 0.135928
Al 0.333333 0.333333 0.181435
Al 0 0 0.226804
Al 0.5 0.5 0.273347
Al 0.833333 0.833333 0.318594
Al 0.166667 0.166667 0.363904
Al 0.5 0.5 0.40907
Al 0.833333 0.833333 0.454545
Al 0.5 0.5 0.500021
Al 0.166667 0.166667 0.545187
Al 0.833333 0.833333 0.590497
Al 0.5 0.5 0.635744
Al 0 0 0.682287
Al 0.333333 0.333333 0.727656
Al 0 0 0.773162
Al 0.666667 0.666667 0.818326
Al 0.333333 0.333333 0.86379
Al 0 0 0.909007
Al 0.666667 0.666667 0.954545
